Info: SIMULATION PARAMETERS:
Info: TIMESTEP               2
Info: NUMBER OF STEPS        1000000
Info: STEPS PER CYCLE        10
Info: PERIODIC CELL BASIS 1  40 0 0
Info: PERIODIC CELL BASIS 2  0 40 0
Info: PERIODIC CELL BASIS 3  0 0 40
Info: PERIODIC CELL CENTER   0 0 0
Info: FIRST LDB TIMESTEP     50
Info: LAST LDB TIMESTEP     -1
Info: HOM BACKGROUND SCALING 1
Info: PME BACKGROUND SCALING 1
Info: MIN ATOMS PER PATCH    40
Info: VELOCITY FILE          eq1.vel
Info: CENTER OF MASS MOVING INITIALLY? NO
Info: DIELECTRIC             1
Info: EXCLUDE                SCALED ONE-FOUR
Info: 1-4 ELECTROSTATICS SCALED BY 1
Info: MODIFIED 1-4 VDW PARAMETERS WILL BE USED
Info: DCD FILENAME           eq2.dcd
Info: DCD FREQUENCY          25000
Info: DCD FIRST STEP         25000
Info: DCD FILE WILL CONTAIN UNIT CELL DATA
Info: NO EXTENDED SYSTEM TRAJECTORY OUTPUT
Info: NO VELOCITY DCD OUTPUT
Info: NO FORCE DCD OUTPUT
Info: OUTPUT FILENAME        eq2
Info: BINARY OUTPUT FILES WILL BE USED
Info: RESTART FILENAME       eq2
Info: RESTART FREQUENCY      2000
Info: BINARY RESTART FILES WILL BE USED
Info: SWITCHING ACTIVE
Info: SWITCHING ON           10
Info: SWITCHING OFF          12
Info: PAIRLIST DISTANCE      12
Info: PAIRLIST SHRINK RATE   0.01
Info: PAIRLIST GROW RATE     0.01
Info: PAIRLIST TRIGGER       0.3
Info: PAIRLISTS PER CYCLE    2
Info: PAIRLISTS ENABLED
Info: MARGIN                 0
Info: HYDROGEN GROUP CUTOFF  2.5
Info: PATCH DIMENSION        14.5
Info: ENERGY OUTPUT STEPS    25000
Info: CROSSTERM ENERGY INCLUDED IN DIHEDRAL
Info: TIMING OUTPUT STEPS    25000
Info: LANGEVIN DYNAMICS ACTIVE
Info: LANGEVIN TEMPERATURE   300
Info: LANGEVIN USING BBK INTEGRATOR
Info: LANGEVIN DAMPING COEFFICIENT IS 1 INVERSE PS
Info: LANGEVIN DYNAMICS NOT APPLIED TO HYDROGENS
Info: PARTICLE MESH EWALD (PME) ACTIVE
Info: PME TOLERANCE               1e-06
Info: PME EWALD COEFFICIENT       0.257952
Info: PME INTERPOLATION ORDER     6
Info: PME GRID DIMENSIONS         40 40 40
Info: PME MAXIMUM GRID SPACING    1
Info: FULL ELECTROSTATIC EVALUATION FREQUENCY      2
Info: USING VERLET I (r-RESPA) MTS SCHEME.
Info: C1 SPLITTING OF LONG RANGE ELECTROSTATICS
Info: PLACING ATOMS IN PATCHES BY HYDROGEN GROUPS
Info: RIGID BONDS TO HYDROGEN : ALL
Info:         ERROR TOLERANCE : 1e-08
Info:          MAX ITERATIONS : 100
Info: RIGID WATER USING SETTLE ALGORITHM
Info: RANDOM NUMBER SEED     1650691909
Info: USE HYDROGEN BONDS?    NO
Info: COORDINATE PDB         ./solvate.pdb
Info: STRUCTURE FILE         ./solvate.psf
Info: PARAMETER file: CHARMM format!
Info: PARAMETERS             ./par_all27_prot_lipid.inp
Info: USING ARITHMETIC MEAN TO COMBINE L-J SIGMA PARAMETERS
Info: BINARY COORDINATES     eq1.coor
Info: SUMMARY OF PARAMETERS:
Info: 179 BONDS
Info: 441 ANGLES
Info: 534 DIHEDRAL
Info: 49 IMPROPER
Info: 0 CROSSTERM
Info: 89 VDW
Info: 0 VDW_PAIRS
Info: 0 NBTHOLE_PAIRS
Info: STRUCTURE SUMMARY:
Info: 5943 ATOMS
Info: 3962 BONDS
Info: 1981 ANGLES
Info: 0 DIHEDRALS
Info: 0 IMPROPERS
Info: 0 CROSSTERMS
Info: 0 EXCLUSIONS
Info: 5943 RIGID BONDS
Info: 11886 DEGREES OF FREEDOM
Info: 1981 HYDROGEN GROUPS
Info: 3 ATOMS IN LARGEST HYDROGEN GROUP
Info: 1981 MIGRATION GROUPS
Info: 3 ATOMS IN LARGEST MIGRATION GROUP
Info: TOTAL MASS = 35688.5 amu
Info: TOTAL CHARGE = 0 e
Info: MASS DENSITY = 0.925993 g/cm^3
Info: ATOM DENSITY = 0.0928594 atoms/A^3
Info: ADDED 5943 IMPLICIT EXCLUSIONS
Info: NONBONDED TABLE R-SQUARED SPACING: 0.0625
Info: NONBONDED TABLE SIZE: 769 POINTS
Info: REMOVING COM VELOCITY 0 0 0
ETITLE: TS BOND ANGLE DIHED IMPRP ELECT VDW BOUNDARY MISC KINETIC TOTAL TEMP POTENTIAL TOTAL3 TEMPAVG PRESSURE GPRESSURE VOLUME PRESSAVG GPRESSAVG
ENERGY: 0 0.0000 0.0000 0.0000 0.0000 -27112.8142 3172.7324 0.0000 0.0000 0.0000 -23940.0818 0.0000 -23940.0818 -23940.0725 0.0000 -4163.2644 -4132.0581 64000.0000 -4163.2644 -4132.0581
ENERGY: 200000 0.0000 0.0000 0.0000 0.0000 -21116.2814 2081.9153 0.0000 0.0000 3544.5499 -15489.8162 300.1344 -19034.3661 -15481.2566 298.9221 -834.0592 -803.7223 64000.0000 -1193.6522 -1193.6721
ENERGY: 400000 0.0000 0.0000 0.0000 0.0000 -21134.2367 2010.4747 0.0000 0.0000 3624.1484 -15499.6137 306.8744 -19123.7621 -15492.9126 298.5218 -1264.6111 -1236.0009 64000.0000 -1190.2527 -1190.2888
ENERGY: 600000 0.0000 0.0000 0.0000 0.0000 -20974.5394 1939.9922 0.0000 0.0000 3574.2017 -15460.3455 302.6451 -19034.5472 -15453.3610 299.3733 -1455.3848 -1429.1767 64000.0000 -1178.5138 -1178.4625
ENERGY: 800000 0.0000 0.0000 0.0000 0.0000 -21052.2667 2016.7470 0.0000 0.0000 3474.8146 -15560.7051 294.2296 -19035.5197 -15552.7619 298.9439 -1211.6031 -1175.3182 64000.0000 -1189.7655 -1189.7744
ENERGY: 1000000 0.0000 0.0000 0.0000 0.0000 -21081.9978 2053.1018 0.0000 0.0000 3577.3099 -15451.5861 302.9083 -19028.8960 -15446.9431 299.3508 -1005.7931 -978.3117 64000.0000 -1169.8049 -1169.8057
