Info: SIMULATION PARAMETERS:
Info: TIMESTEP               2
Info: NUMBER OF STEPS        1000000
Info: STEPS PER CYCLE        10
Info: PERIODIC CELL BASIS 1  40 0 0
Info: PERIODIC CELL BASIS 2  0 40 0
Info: PERIODIC CELL BASIS 3  0 0 40
Info: PERIODIC CELL CENTER   0 0 0
Info: FIRST LDB TIMESTEP     50
Info: LAST LDB TIMESTEP     -1
Info: HOM BACKGROUND SCALING 1
Info: PME BACKGROUND SCALING 1
Info: MIN ATOMS PER PATCH    40
Info: VELOCITY FILE          eq2.vel
Info: CENTER OF MASS MOVING INITIALLY? NO
Info: DIELECTRIC             1
Info: EXCLUDE                SCALED ONE-FOUR
Info: 1-4 ELECTROSTATICS SCALED BY 1
Info: MODIFIED 1-4 VDW PARAMETERS WILL BE USED
Info: DCD FILENAME           eq3.dcd
Info: DCD FREQUENCY          25000
Info: DCD FIRST STEP         25000
Info: DCD FILE WILL CONTAIN UNIT CELL DATA
Info: NO EXTENDED SYSTEM TRAJECTORY OUTPUT
Info: NO VELOCITY DCD OUTPUT
Info: NO FORCE DCD OUTPUT
Info: OUTPUT FILENAME        eq3
Info: BINARY OUTPUT FILES WILL BE USED
Info: RESTART FILENAME       eq3
Info: RESTART FREQUENCY      2000
Info: BINARY RESTART FILES WILL BE USED
Info: SWITCHING ACTIVE
Info: SWITCHING ON           10
Info: SWITCHING OFF          12
Info: PAIRLIST DISTANCE      12
Info: PAIRLIST SHRINK RATE   0.01
Info: PAIRLIST GROW RATE     0.01
Info: PAIRLIST TRIGGER       0.3
Info: PAIRLISTS PER CYCLE    2
Info: PAIRLISTS ENABLED
Info: MARGIN                 0
Info: HYDROGEN GROUP CUTOFF  2.5
Info: PATCH DIMENSION        14.5
Info: ENERGY OUTPUT STEPS    25000
Info: CROSSTERM ENERGY INCLUDED IN DIHEDRAL
Info: TIMING OUTPUT STEPS    25000
Info: LANGEVIN DYNAMICS ACTIVE
Info: LANGEVIN TEMPERATURE   300
Info: LANGEVIN USING BBK INTEGRATOR
Info: LANGEVIN DAMPING COEFFICIENT IS 1 INVERSE PS
Info: LANGEVIN DYNAMICS NOT APPLIED TO HYDROGENS
Info: PARTICLE MESH EWALD (PME) ACTIVE
Info: PME TOLERANCE               1e-06
Info: PME EWALD COEFFICIENT       0.257952
Info: PME INTERPOLATION ORDER     6
Info: PME GRID DIMENSIONS         40 40 40
Info: PME MAXIMUM GRID SPACING    1
Info: FULL ELECTROSTATIC EVALUATION FREQUENCY      2
Info: USING VERLET I (r-RESPA) MTS SCHEME.
Info: C1 SPLITTING OF LONG RANGE ELECTROSTATICS
Info: PLACING ATOMS IN PATCHES BY HYDROGEN GROUPS
Info: RIGID BONDS TO HYDROGEN : ALL
Info:         ERROR TOLERANCE : 1e-08
Info:          MAX ITERATIONS : 100
Info: RIGID WATER USING SETTLE ALGORITHM
Info: RANDOM NUMBER SEED     1650695877
Info: USE HYDROGEN BONDS?    NO
Info: COORDINATE PDB         ./solvate.pdb
Info: STRUCTURE FILE         ./solvate.psf
Info: PARAMETER file: CHARMM format!
Info: PARAMETERS             ./par_all27_prot_lipid.inp
Info: USING ARITHMETIC MEAN TO COMBINE L-J SIGMA PARAMETERS
Info: BINARY COORDINATES     eq2.coor
Info: SUMMARY OF PARAMETERS:
Info: 179 BONDS
Info: 441 ANGLES
Info: 534 DIHEDRAL
Info: 49 IMPROPER
Info: 0 CROSSTERM
Info: 89 VDW
Info: 0 VDW_PAIRS
Info: 0 NBTHOLE_PAIRS
Info: STRUCTURE SUMMARY:
Info: 5943 ATOMS
Info: 3962 BONDS
Info: 1981 ANGLES
Info: 0 DIHEDRALS
Info: 0 IMPROPERS
Info: 0 CROSSTERMS
Info: 0 EXCLUSIONS
Info: 5943 RIGID BONDS
Info: 11886 DEGREES OF FREEDOM
Info: 1981 HYDROGEN GROUPS
Info: 3 ATOMS IN LARGEST HYDROGEN GROUP
Info: 1981 MIGRATION GROUPS
Info: 3 ATOMS IN LARGEST MIGRATION GROUP
Info: TOTAL MASS = 35688.5 amu
Info: TOTAL CHARGE = 0 e
Info: MASS DENSITY = 0.925993 g/cm^3
Info: ATOM DENSITY = 0.0928594 atoms/A^3
Info: ADDED 5943 IMPLICIT EXCLUSIONS
Info: NONBONDED TABLE R-SQUARED SPACING: 0.0625
Info: NONBONDED TABLE SIZE: 769 POINTS
Info: REMOVING COM VELOCITY -0.103694 -0.155592 0.102549
ETITLE: TS BOND ANGLE DIHED IMPRP ELECT VDW BOUNDARY MISC KINETIC TOTAL TEMP POTENTIAL TOTAL3 TEMPAVG PRESSURE GPRESSURE VOLUME PRESSAVG GPRESSAVG
ENERGY: 0 0.0000 0.0000 0.0000 0.0000 -21081.9978 2053.1018 0.0000 0.0000 3575.2634 -15453.6326 302.7350 -19028.8960 -15446.6020 302.7350 -1014.0709 -981.5804 64000.0000 -1014.0709 -981.5804
ENERGY: 200000 0.0000 0.0000 0.0000 0.0000 -20809.7815 1883.0515 0.0000 0.0000 3546.6799 -15380.0501 300.3147 -18926.7300 -15373.2866 298.4047 -1453.6866 -1419.5332 64000.0000 -1185.5577 -1185.4954
ENERGY: 400000 0.0000 0.0000 0.0000 0.0000 -20911.1154 1855.0521 0.0000 0.0000 3517.5062 -15538.5570 297.8445 -19056.0632 -15530.7554 297.8867 -1754.6336 -1728.0484 64000.0000 -1187.6285 -1187.6138
ENERGY: 600000 0.0000 0.0000 0.0000 0.0000 -21225.9372 2067.5273 0.0000 0.0000 3572.3892 -15586.0207 302.4917 -19158.4100 -15580.6631 298.8299 -982.7239 -945.0117 64000.0000 -1193.2776 -1193.2171
ENERGY: 800000 0.0000 0.0000 0.0000 0.0000 -21014.4997 1976.2836 0.0000 0.0000 3554.5294 -15483.6867 300.9794 -19038.2161 -15474.4683 297.4677 -1229.5043 -1198.7571 64000.0000 -1203.1080 -1203.1073
ENERGY: 1000000 0.0000 0.0000 0.0000 0.0000 -20947.2578 1986.3263 0.0000 0.0000 3508.6198 -15452.3117 297.0920 -18960.9315 -15445.2019 298.9265 -1200.1271 -1177.5685 64000.0000 -1201.6638 -1201.6567
