Info: SIMULATION PARAMETERS:
Info: TIMESTEP               2
Info: NUMBER OF STEPS        1000000
Info: STEPS PER CYCLE        10
Info: PERIODIC CELL BASIS 1  40 0 0
Info: PERIODIC CELL BASIS 2  0 40 0
Info: PERIODIC CELL BASIS 3  0 0 40
Info: PERIODIC CELL CENTER   0 0 0
Info: FIRST LDB TIMESTEP     50
Info: LAST LDB TIMESTEP     -1
Info: HOM BACKGROUND SCALING 1
Info: PME BACKGROUND SCALING 1
Info: MIN ATOMS PER PATCH    40
Info: VELOCITY FILE          eq3.vel
Info: CENTER OF MASS MOVING INITIALLY? NO
Info: DIELECTRIC             1
Info: EXCLUDE                SCALED ONE-FOUR
Info: 1-4 ELECTROSTATICS SCALED BY 1
Info: MODIFIED 1-4 VDW PARAMETERS WILL BE USED
Info: DCD FILENAME           eq4.dcd
Info: DCD FREQUENCY          25000
Info: DCD FIRST STEP         25000
Info: DCD FILE WILL CONTAIN UNIT CELL DATA
Info: NO EXTENDED SYSTEM TRAJECTORY OUTPUT
Info: NO VELOCITY DCD OUTPUT
Info: NO FORCE DCD OUTPUT
Info: OUTPUT FILENAME        eq4
Info: BINARY OUTPUT FILES WILL BE USED
Info: RESTART FILENAME       eq4
Info: RESTART FREQUENCY      2000
Info: BINARY RESTART FILES WILL BE USED
Info: SWITCHING ACTIVE
Info: SWITCHING ON           10
Info: SWITCHING OFF          12
Info: PAIRLIST DISTANCE      12
Info: PAIRLIST SHRINK RATE   0.01
Info: PAIRLIST GROW RATE     0.01
Info: PAIRLIST TRIGGER       0.3
Info: PAIRLISTS PER CYCLE    2
Info: PAIRLISTS ENABLED
Info: MARGIN                 0.435
Info: HYDROGEN GROUP CUTOFF  2.5
Info: PATCH DIMENSION        14.935
Info: ENERGY OUTPUT STEPS    25000
Info: CROSSTERM ENERGY INCLUDED IN DIHEDRAL
Info: TIMING OUTPUT STEPS    25000
Info: LANGEVIN DYNAMICS ACTIVE
Info: LANGEVIN TEMPERATURE   300
Info: LANGEVIN USING BBK INTEGRATOR
Info: LANGEVIN DAMPING COEFFICIENT IS 1 INVERSE PS
Info: LANGEVIN DYNAMICS NOT APPLIED TO HYDROGENS
Info: LANGEVIN PISTON PRESSURE CONTROL ACTIVE
Info:        TARGET PRESSURE IS 1.01325 BAR
Info:     OSCILLATION PERIOD IS 100 FS
Info:             DECAY TIME IS 50 FS
Info:     PISTON TEMPERATURE IS 300 K
Info:       PRESSURE CONTROL IS GROUP-BASED
Info:    INITIAL STRAIN RATE IS 0 0 0
Info:       CELL FLUCTUATION IS ISOTROPIC
Info: PARTICLE MESH EWALD (PME) ACTIVE
Info: PME TOLERANCE               1e-06
Info: PME EWALD COEFFICIENT       0.257952
Info: PME INTERPOLATION ORDER     6
Info: PME GRID DIMENSIONS         40 40 40
Info: PME MAXIMUM GRID SPACING    1
Info: FULL ELECTROSTATIC EVALUATION FREQUENCY      2
Info: USING VERLET I (r-RESPA) MTS SCHEME.
Info: C1 SPLITTING OF LONG RANGE ELECTROSTATICS
Info: PLACING ATOMS IN PATCHES BY HYDROGEN GROUPS
Info: RIGID BONDS TO HYDROGEN : ALL
Info:         ERROR TOLERANCE : 1e-08
Info:          MAX ITERATIONS : 100
Info: RIGID WATER USING SETTLE ALGORITHM
Info: RANDOM NUMBER SEED     1650699906
Info: USE HYDROGEN BONDS?    NO
Info: COORDINATE PDB         ./solvate.pdb
Info: STRUCTURE FILE         ./solvate.psf
Info: PARAMETER file: CHARMM format!
Info: PARAMETERS             ./par_all27_prot_lipid.inp
Info: USING ARITHMETIC MEAN TO COMBINE L-J SIGMA PARAMETERS
Info: BINARY COORDINATES     eq3.coor
Info: SUMMARY OF PARAMETERS:
Info: 179 BONDS
Info: 441 ANGLES
Info: 534 DIHEDRAL
Info: 49 IMPROPER
Info: 0 CROSSTERM
Info: 89 VDW
Info: 0 VDW_PAIRS
Info: 0 NBTHOLE_PAIRS
Info: STRUCTURE SUMMARY:
Info: 5943 ATOMS
Info: 3962 BONDS
Info: 1981 ANGLES
Info: 0 DIHEDRALS
Info: 0 IMPROPERS
Info: 0 CROSSTERMS
Info: 0 EXCLUSIONS
Info: 5943 RIGID BONDS
Info: 11886 DEGREES OF FREEDOM
Info: 1981 HYDROGEN GROUPS
Info: 3 ATOMS IN LARGEST HYDROGEN GROUP
Info: 1981 MIGRATION GROUPS
Info: 3 ATOMS IN LARGEST MIGRATION GROUP
Info: TOTAL MASS = 35688.5 amu
Info: TOTAL CHARGE = 0 e
Info: MASS DENSITY = 0.925993 g/cm^3
Info: ATOM DENSITY = 0.0928594 atoms/A^3
Info: ADDED 5943 IMPLICIT EXCLUSIONS
Info: NONBONDED TABLE R-SQUARED SPACING: 0.0625
Info: NONBONDED TABLE SIZE: 769 POINTS
Info: REMOVING COM VELOCITY 0.0372633 -0.0266262 0.0321146
ETITLE: TS BOND ANGLE DIHED IMPRP ELECT VDW BOUNDARY MISC KINETIC TOTAL TEMP POTENTIAL TOTAL3 TEMPAVG PRESSURE GPRESSURE VOLUME PRESSAVG GPRESSAVG
ENERGY: 0 0.0000 0.0000 0.0000 0.0000 -20947.2578 1986.3263 0.0000 0.0000 3508.3768 -15452.5547 297.0714 -18960.9315 -15445.4393 297.0714 -1201.5164 -1178.1606 64000.0000 -1201.5164 -1178.1606
ENERGY: 200000 0.0000 0.0000 0.0000 0.0000 -21574.6912 2135.0610 0.0000 0.0000 3660.7097 -15778.9206 309.9702 -19439.6302 -15770.3338 298.8469 342.6800 388.4287 58228.5879 1.6585 1.6920
ENERGY: 400000 0.0000 0.0000 0.0000 0.0000 -21393.5441 1946.3664 0.0000 0.0000 3505.1953 -15941.9824 296.8020 -19447.1776 -15933.5270 299.4389 -581.7194 -538.8607 58585.3801 -0.2577 -0.2618
ENERGY: 600000 0.0000 0.0000 0.0000 0.0000 -21517.6046 2127.6751 0.0000 0.0000 3486.5753 -15903.3541 295.2254 -19389.9295 -15896.8976 298.8712 257.4409 301.4901 58571.1187 2.4488 2.4148
ENERGY: 800000 0.0000 0.0000 0.0000 0.0000 -21397.2387 2058.9529 0.0000 0.0000 3594.7333 -15743.5524 304.3837 -19338.2858 -15738.8687 300.5718 -54.5091 -20.6025 58843.5545 1.7618 1.7508
ENERGY: 1000000 0.0000 0.0000 0.0000 0.0000 -21350.3587 2097.9286 0.0000 0.0000 3477.9026 -15774.5275 294.4910 -19252.4301 -15767.1895 300.0665 295.8991 316.2079 58754.1996 -0.8776 -0.8752
